
 OpenBabel12182421113D

154162  0  0  0  0  0  0  0  0999 V2000
   -0.0786   -0.5038   -2.5837 Br  0  0  0  0  0  0  0  0  0  0  0  0
    1.6039   -0.6798   -1.6234 C   0  0  0  0  0  0  0  0  0  0  0  0
    2.3566    0.6406   -1.5698 C   0  0  0  0  0  0  0  0  0  0  0  0
    1.7130    1.7407   -0.7150 C   0  0  0  0  0  0  0  0  0  0  0  0
    1.4288    1.3776    0.7456 C   0  0  0  0  0  0  0  0  0  0  0  0
    2.6226    0.8973    1.5806 C   0  0  0  0  0  0  0  0  0  0  0  0
    3.7029    1.9574    1.8025 C   0  0  0  0  0  0  0  0  0  0  0  0
    4.4652    2.1089    0.6074 O   0  0  0  0  0  0  0  0  0  0  0  0
    5.4457    3.0616    0.6063 C   0  0  0  0  0  0  0  0  0  0  0  0
    6.0716    3.2505   -0.6290 C   0  0  0  0  0  0  0  0  0  0  0  0
    7.0915    4.1912   -0.7760 C   0  0  0  0  0  0  0  0  0  0  0  0
    7.5003    4.9468    0.3205 C   0  0  0  0  0  0  0  0  0  0  0  0
    6.8904    4.7588    1.5674 C   0  0  0  0  0  0  0  0  0  0  0  0
    5.8555    3.8186    1.7042 C   0  0  0  0  0  0  0  0  0  0  0  0
    7.3360    5.5591    2.7415 C   0  0  0  0  0  0  0  0  0  0  0  0
    8.2606    5.0114    3.5771 C   0  0  0  0  0  0  0  0  0  0  0  0
    8.8838    3.7181    3.3999 C   0  0  0  0  0  0  0  0  0  0  0  0
    9.7655    3.4731    4.3644 C   0  0  0  0  0  0  0  0  0  0  0  0
    9.6659    4.6886    5.1899 C   0  0  0  0  0  0  0  0  0  0  0  0
    8.8021    5.5643    4.7403 N   0  0  0  0  0  0  0  0  0  0  0  0
   10.5530    4.7659    6.4066 C   0  0  0  0  0  0  0  0  0  0  0  0
   10.2590    5.5940    7.4292 C   0  0  0  0  0  0  0  0  0  0  0  0
   11.0115    5.7388    8.6753 C   0  0  0  0  0  0  0  0  0  0  0  0
   10.4152    6.6611    9.4565 C   0  0  0  0  0  0  0  0  0  0  0  0
    9.2473    7.1870    8.7583 C   0  0  0  0  0  0  0  0  0  0  0  0
    8.4287    8.1755    9.1820 C   0  0  0  0  0  0  0  0  0  0  0  0
    7.4951    8.6028    8.1229 C   0  0  0  0  0  0  0  0  0  0  0  0
    7.7188    9.5790    7.2948 N   0  0  0  0  0  0  0  0  0  0  0  0
    6.8591    9.3496    6.2446 C   0  0  0  0  0  0  0  0  0  0  0  0
    7.0765    9.7910    4.9773 C   0  0  0  0  0  0  0  0  0  0  0  0
    6.6287    8.8835    3.9636 C   0  0  0  0  0  0  0  0  0  0  0  0
    7.3531    7.7153    3.8590 N   0  0  0  0  0  0  0  0  0  0  0  0
    6.7830    6.8688    2.9477 C   0  0  0  0  0  0  0  0  0  0  0  0
    5.7370    7.5738    2.3697 C   0  0  0  0  0  0  0  0  0  0  0  0
    5.6438    8.8442    3.0047 C   0  0  0  0  0  0  0  0  0  0  0  0
    8.0514   10.9003    4.6790 C   0  0  0  0  0  0  0  0  0  0  0  0
    8.6612   10.9949    3.4135 C   0  0  0  0  0  0  0  0  0  0  0  0
    9.5926   11.9990    3.1229 C   0  0  0  0  0  0  0  0  0  0  0  0
    9.9562   12.9189    4.1017 C   0  0  0  0  0  0  0  0  0  0  0  0
    9.3739   12.8361    5.3611 C   0  0  0  0  0  0  0  0  0  0  0  0
    8.3874   11.8832    5.6249 C   0  0  0  0  0  0  0  0  0  0  0  0
    9.7220   13.6707    6.3903 O   0  0  0  0  0  0  0  0  0  0  0  0
   11.1061   13.5531    6.7640 C   0  0  0  0  0  0  0  0  0  0  0  0
   11.4102   12.2077    7.4338 C   0  0  0  0  0  0  0  0  0  0  0  0
   12.8594   12.0634    7.8996 C   0  0  0  0  0  0  0  0  0  0  0  0
   13.3039   13.0324    8.9985 C   0  0  0  0  0  0  0  0  0  0  0  0
   12.4658   13.0212   10.2838 C   0  0  0  0  0  0  0  0  0  0  0  0
   12.2913   11.6673   10.9559 C   0  0  0  0  0  0  0  0  0  0  0  0
   13.9782   10.9948   11.6545 Br  0  0  0  0  0  0  0  0  0  0  0  0
    5.9566    8.2880    6.6615 C   0  0  0  0  0  0  0  0  0  0  0  0
    6.3107    7.7904    7.8456 C   0  0  0  0  0  0  0  0  0  0  0  0
    8.5314    8.9441   10.4347 C   0  0  0  0  0  0  0  0  0  0  0  0
    8.5302    8.3042   11.6803 C   0  0  0  0  0  0  0  0  0  0  0  0
    8.5942    9.0518   12.8560 C   0  0  0  0  0  0  0  0  0  0  0  0
    8.6384   10.4447   12.7943 C   0  0  0  0  0  0  0  0  0  0  0  0
    8.6153   11.1038   11.5643 C   0  0  0  0  0  0  0  0  0  0  0  0
    8.5745   10.3494   10.3921 C   0  0  0  0  0  0  0  0  0  0  0  0
    8.6440   12.4678   11.6462 O   0  0  0  0  0  0  0  0  0  0  0  0
    8.4182   13.2375   10.4641 C   0  0  0  0  0  0  0  0  0  0  0  0
    6.9364   13.3313   10.0940 C   0  0  0  0  0  0  0  0  0  0  0  0
    6.0284   13.8202   11.2279 C   0  0  0  0  0  0  0  0  0  0  0  0
    6.3598   15.2067   11.7891 C   0  0  0  0  0  0  0  0  0  0  0  0
    6.3925   16.3511   10.7672 C   0  0  0  0  0  0  0  0  0  0  0  0
    5.1193   16.5499    9.9587 C   0  0  0  0  0  0  0  0  0  0  0  0
    3.6641   17.2012   11.0739 Br  0  0  0  0  0  0  0  0  0  0  0  0
    9.2241    6.4834    7.5659 N   0  0  0  0  0  0  0  0  0  0  0  0
   11.7520    3.9031    6.4876 C   0  0  0  0  0  0  0  0  0  0  0  0
   11.7193    2.6907    7.1941 C   0  0  0  0  0  0  0  0  0  0  0  0
   12.8596    1.8879    7.2681 C   0  0  0  0  0  0  0  0  0  0  0  0
   14.0352    2.2874    6.6333 C   0  0  0  0  0  0  0  0  0  0  0  0
   14.0606    3.4821    5.9158 C   0  0  0  0  0  0  0  0  0  0  0  0
   12.9365    4.3019    5.8570 C   0  0  0  0  0  0  0  0  0  0  0  0
   15.2145    3.9208    5.3301 O   0  0  0  0  0  0  0  0  0  0  0  0
   15.5249    3.1942    4.1354 C   0  0  0  0  0  0  0  0  0  0  0  0
   15.1222    3.9986    2.8975 C   0  0  0  0  0  0  0  0  0  0  0  0
   15.6778    5.4268    2.8546 C   0  0  0  0  0  0  0  0  0  0  0  0
   17.2049    5.5427    2.8915 C   0  0  0  0  0  0  0  0  0  0  0  0
   17.9580    4.7946    1.7835 C   0  0  0  0  0  0  0  0  0  0  0  0
   17.5777    5.1691    0.3590 C   0  0  0  0  0  0  0  0  0  0  0  0
   18.1409    6.9790   -0.0766 Br  0  0  0  0  0  0  0  0  0  0  0  0
    1.3743   -1.0844   -0.6353 H   0  0  0  0  0  0  0  0  0  0  0  0
    2.1807   -1.4256   -2.1785 H   0  0  0  0  0  0  0  0  0  0  0  0
    3.3664    0.4417   -1.1937 H   0  0  0  0  0  0  0  0  0  0  0  0
    2.4882    1.0308   -2.5871 H   0  0  0  0  0  0  0  0  0  0  0  0
    2.3539    2.6293   -0.7505 H   0  0  0  0  0  0  0  0  0  0  0  0
    0.7684    2.0519   -1.1773 H   0  0  0  0  0  0  0  0  0  0  0  0
    0.9877    2.2547    1.2362 H   0  0  0  0  0  0  0  0  0  0  0  0
    0.6535    0.6027    0.7764 H   0  0  0  0  0  0  0  0  0  0  0  0
    2.2362    0.5974    2.5626 H   0  0  0  0  0  0  0  0  0  0  0  0
    3.0617    0.0038    1.1233 H   0  0  0  0  0  0  0  0  0  0  0  0
    3.2378    2.9075    2.0915 H   0  0  0  0  0  0  0  0  0  0  0  0
    4.3621    1.6106    2.6075 H   0  0  0  0  0  0  0  0  0  0  0  0
    5.7540    2.6633   -1.4876 H   0  0  0  0  0  0  0  0  0  0  0  0
    7.5623    4.3362   -1.7447 H   0  0  0  0  0  0  0  0  0  0  0  0
    8.2916    5.6839    0.2024 H   0  0  0  0  0  0  0  0  0  0  0  0
    5.3932    3.7002    2.6790 H   0  0  0  0  0  0  0  0  0  0  0  0
    8.6752    3.0392    2.5866 H   0  0  0  0  0  0  0  0  0  0  0  0
   10.3851    2.6084    4.5053 H   0  0  0  0  0  0  0  0  0  0  0  0
   11.9157    5.2066    8.9270 H   0  0  0  0  0  0  0  0  0  0  0  0
   10.7726    6.9895   10.4191 H   0  0  0  0  0  0  0  0  0  0  0  0
    8.1535    7.4684    4.4327 H   0  0  0  0  0  0  0  0  0  0  0  0
    5.0923    7.2067    1.5810 H   0  0  0  0  0  0  0  0  0  0  0  0
    4.9200    9.6224    2.8019 H   0  0  0  0  0  0  0  0  0  0  0  0
    8.4228   10.2812    2.6276 H   0  0  0  0  0  0  0  0  0  0  0  0
   10.0405   12.0500    2.1340 H   0  0  0  0  0  0  0  0  0  0  0  0
   10.6835   13.6907    3.8732 H   0  0  0  0  0  0  0  0  0  0  0  0
    7.9248   11.8913    6.6077 H   0  0  0  0  0  0  0  0  0  0  0  0
   11.7685   13.7367    5.9101 H   0  0  0  0  0  0  0  0  0  0  0  0
   11.2874   14.3651    7.4759 H   0  0  0  0  0  0  0  0  0  0  0  0
   10.7161   12.0408    8.2633 H   0  0  0  0  0  0  0  0  0  0  0  0
   11.2074   11.3950    6.7254 H   0  0  0  0  0  0  0  0  0  0  0  0
   13.0143   11.0335    8.2426 H   0  0  0  0  0  0  0  0  0  0  0  0
   13.5235   12.1925    7.0356 H   0  0  0  0  0  0  0  0  0  0  0  0
   14.3500   12.8137    9.2444 H   0  0  0  0  0  0  0  0  0  0  0  0
   13.3078   14.0540    8.5996 H   0  0  0  0  0  0  0  0  0  0  0  0
   12.9185   13.7264   10.9926 H   0  0  0  0  0  0  0  0  0  0  0  0
   11.4722   13.4241   10.0567 H   0  0  0  0  0  0  0  0  0  0  0  0
   11.6338   11.7556   11.8249 H   0  0  0  0  0  0  0  0  0  0  0  0
   11.8886   10.9035   10.2873 H   0  0  0  0  0  0  0  0  0  0  0  0
    5.1356    7.9281    6.0587 H   0  0  0  0  0  0  0  0  0  0  0  0
    5.9020    6.9839    8.4218 H   0  0  0  0  0  0  0  0  0  0  0  0
    8.4702    7.2201   11.7470 H   0  0  0  0  0  0  0  0  0  0  0  0
    8.5984    8.5520   13.8212 H   0  0  0  0  0  0  0  0  0  0  0  0
    8.6781   11.0236   13.7141 H   0  0  0  0  0  0  0  0  0  0  0  0
    8.5749   10.8351    9.4212 H   0  0  0  0  0  0  0  0  0  0  0  0
    8.8014   14.2421   10.6748 H   0  0  0  0  0  0  0  0  0  0  0  0
    9.0192   12.8792    9.6233 H   0  0  0  0  0  0  0  0  0  0  0  0
    6.8270   13.9778    9.2162 H   0  0  0  0  0  0  0  0  0  0  0  0
    6.5745   12.3419    9.7908 H   0  0  0  0  0  0  0  0  0  0  0  0
    4.9913   13.8103   10.8724 H   0  0  0  0  0  0  0  0  0  0  0  0
    6.0629   13.0982   12.0533 H   0  0  0  0  0  0  0  0  0  0  0  0
    5.6343   15.4403   12.5775 H   0  0  0  0  0  0  0  0  0  0  0  0
    7.3334   15.1678   12.2928 H   0  0  0  0  0  0  0  0  0  0  0  0
    6.6393   17.2788   11.2993 H   0  0  0  0  0  0  0  0  0  0  0  0
    7.2198   16.1780   10.0689 H   0  0  0  0  0  0  0  0  0  0  0  0
    5.2684   17.3184    9.1945 H   0  0  0  0  0  0  0  0  0  0  0  0
    4.7720   15.6370    9.4702 H   0  0  0  0  0  0  0  0  0  0  0  0
    8.5920    6.6707    6.7965 H   0  0  0  0  0  0  0  0  0  0  0  0
   10.8095    2.3732    7.7000 H   0  0  0  0  0  0  0  0  0  0  0  0
   12.8352    0.9581    7.8311 H   0  0  0  0  0  0  0  0  0  0  0  0
   14.9305    1.6771    6.7113 H   0  0  0  0  0  0  0  0  0  0  0  0
   12.9909    5.2486    5.3248 H   0  0  0  0  0  0  0  0  0  0  0  0
   16.6058    3.0182    4.1366 H   0  0  0  0  0  0  0  0  0  0  0  0
   15.0501    2.2047    4.1041 H   0  0  0  0  0  0  0  0  0  0  0  0
   15.4179    3.4491    1.9971 H   0  0  0  0  0  0  0  0  0  0  0  0
   14.0278    4.0731    2.8700 H   0  0  0  0  0  0  0  0  0  0  0  0
   15.2701    5.9968    3.6989 H   0  0  0  0  0  0  0  0  0  0  0  0
   15.2954    5.9231    1.9549 H   0  0  0  0  0  0  0  0  0  0  0  0
   17.4694    6.6064    2.8602 H   0  0  0  0  0  0  0  0  0  0  0  0
   17.5703    5.1810    3.8603 H   0  0  0  0  0  0  0  0  0  0  0  0
   19.0336    4.9556    1.9313 H   0  0  0  0  0  0  0  0  0  0  0  0
   17.7963    3.7177    1.9113 H   0  0  0  0  0  0  0  0  0  0  0  0
   18.0939    4.5221   -0.3564 H   0  0  0  0  0  0  0  0  0  0  0  0
   16.5038    5.1077    0.1702 H   0  0  0  0  0  0  0  0  0  0  0  0
  1  2  1  0  0  0  0
  2  3  1  0  0  0  0
  2 81  1  0  0  0  0
  2 82  1  0  0  0  0
  3  4  1  0  0  0  0
  3 83  1  0  0  0  0
  3 84  1  0  0  0  0
  4  5  1  0  0  0  0
  4 85  1  0  0  0  0
  4 86  1  0  0  0  0
  5  6  1  0  0  0  0
  5 87  1  0  0  0  0
  5 88  1  0  0  0  0
  6  7  1  0  0  0  0
  6 89  1  0  0  0  0
  6 90  1  0  0  0  0
  7  8  1  0  0  0  0
  7 91  1  0  0  0  0
  7 92  1  0  0  0  0
  8  9  1  0  0  0  0
  9 10  1  0  0  0  0
  9 14  2  0  0  0  0
 10 11  2  0  0  0  0
 10 93  1  0  0  0  0
 11 12  1  0  0  0  0
 11 94  1  0  0  0  0
 12 13  2  0  0  0  0
 12 95  1  0  0  0  0
 13 14  1  0  0  0  0
 13 15  1  0  0  0  0
 14 96  1  0  0  0  0
 15 16  2  0  0  0  0
 15 33  1  0  0  0  0
 16 17  1  0  0  0  0
 16 20  1  0  0  0  0
 17 18  2  0  0  0  0
 17 97  1  0  0  0  0
 18 19  1  0  0  0  0
 18 98  1  0  0  0  0
 19 20  2  0  0  0  0
 19 21  1  0  0  0  0
 21 22  2  0  0  0  0
 21 67  1  0  0  0  0
 22 23  1  0  0  0  0
 22 66  1  0  0  0  0
 23 24  2  0  0  0  0
 23 99  1  0  0  0  0
 24 25  1  0  0  0  0
 24100  1  0  0  0  0
 25 26  2  0  0  0  0
 25 66  1  0  0  0  0
 26 27  1  0  0  0  0
 26 52  1  0  0  0  0
 27 28  2  0  0  0  0
 27 51  1  0  0  0  0
 28 29  1  0  0  0  0
 29 30  2  0  0  0  0
 29 50  1  0  0  0  0
 30 31  1  0  0  0  0
 30 36  1  0  0  0  0
 31 32  1  0  0  0  0
 31 35  2  0  0  0  0
 32 33  1  0  0  0  0
 32101  1  0  0  0  0
 33 34  2  0  0  0  0
 34 35  1  0  0  0  0
 34102  1  0  0  0  0
 35103  1  0  0  0  0
 36 37  1  0  0  0  0
 36 41  2  0  0  0  0
 37 38  2  0  0  0  0
 37104  1  0  0  0  0
 38 39  1  0  0  0  0
 38105  1  0  0  0  0
 39 40  2  0  0  0  0
 39106  1  0  0  0  0
 40 41  1  0  0  0  0
 40 42  1  0  0  0  0
 41107  1  0  0  0  0
 42 43  1  0  0  0  0
 43 44  1  0  0  0  0
 43108  1  0  0  0  0
 43109  1  0  0  0  0
 44 45  1  0  0  0  0
 44110  1  0  0  0  0
 44111  1  0  0  0  0
 45 46  1  0  0  0  0
 45112  1  0  0  0  0
 45113  1  0  0  0  0
 46 47  1  0  0  0  0
 46114  1  0  0  0  0
 46115  1  0  0  0  0
 47 48  1  0  0  0  0
 47116  1  0  0  0  0
 47117  1  0  0  0  0
 48 49  1  0  0  0  0
 48118  1  0  0  0  0
 48119  1  0  0  0  0
 50 51  2  0  0  0  0
 50120  1  0  0  0  0
 51121  1  0  0  0  0
 52 53  1  0  0  0  0
 52 57  2  0  0  0  0
 53 54  2  0  0  0  0
 53122  1  0  0  0  0
 54 55  1  0  0  0  0
 54123  1  0  0  0  0
 55 56  2  0  0  0  0
 55124  1  0  0  0  0
 56 57  1  0  0  0  0
 56 58  1  0  0  0  0
 57125  1  0  0  0  0
 58 59  1  0  0  0  0
 59 60  1  0  0  0  0
 59126  1  0  0  0  0
 59127  1  0  0  0  0
 60 61  1  0  0  0  0
 60128  1  0  0  0  0
 60129  1  0  0  0  0
 61 62  1  0  0  0  0
 61130  1  0  0  0  0
 61131  1  0  0  0  0
 62 63  1  0  0  0  0
 62132  1  0  0  0  0
 62133  1  0  0  0  0
 63 64  1  0  0  0  0
 63134  1  0  0  0  0
 63135  1  0  0  0  0
 64 65  1  0  0  0  0
 64136  1  0  0  0  0
 64137  1  0  0  0  0
 66138  1  0  0  0  0
 67 68  1  0  0  0  0
 67 72  2  0  0  0  0
 68 69  2  0  0  0  0
 68139  1  0  0  0  0
 69 70  1  0  0  0  0
 69140  1  0  0  0  0
 70 71  2  0  0  0  0
 70141  1  0  0  0  0
 71 72  1  0  0  0  0
 71 73  1  0  0  0  0
 72142  1  0  0  0  0
 73 74  1  0  0  0  0
 74 75  1  0  0  0  0
 74143  1  0  0  0  0
 74144  1  0  0  0  0
 75 76  1  0  0  0  0
 75145  1  0  0  0  0
 75146  1  0  0  0  0
 76 77  1  0  0  0  0
 76147  1  0  0  0  0
 76148  1  0  0  0  0
 77 78  1  0  0  0  0
 77149  1  0  0  0  0
 77150  1  0  0  0  0
 78 79  1  0  0  0  0
 78151  1  0  0  0  0
 78152  1  0  0  0  0
 79 80  1  0  0  0  0
 79153  1  0  0  0  0
 79154  1  0  0  0  0
M  END
$$$$
